
     RDKit          3D

  0  0  0  0  0  0  0  0  0  0999 V3000
M  V30 BEGIN CTAB
M  V30 COUNTS 17 16 0 0 0
M  V30 BEGIN ATOM
M  V30 1 O 0.882207 -0.207755 0.453892 0
M  V30 2 O -1.395994 -0.785285 0.531803 0
M  V30 3 O 2.539652 -1.526775 -0.412784 0
M  V30 4 O -1.386518 1.064329 -0.800942 0
M  V30 5 C -0.101372 -1.200881 0.141130 0
M  V30 6 C 2.221942 -0.425011 0.148713 0
M  V30 7 C -2.006526 0.357362 0.036504 0
M  V30 8 C 3.257005 0.604282 0.470483 0
M  V30 9 C -3.388379 0.721785 0.510318 0
M  V30 10 H 0.138114 -2.110225 0.734006 0
M  V30 11 H -0.041851 -1.513180 -0.927247 0
M  V30 12 H 3.037416 1.479419 -0.172997 0
M  V30 13 H 4.243469 0.201781 0.151228 0
M  V30 14 H 3.259078 0.882518 1.526284 0
M  V30 15 H -4.023790 -0.182471 0.646099 0
M  V30 16 H -3.885267 1.318254 -0.302692 0
M  V30 17 H -3.349186 1.321851 1.425878 0
M  V30 END ATOM
M  V30 BEGIN BOND
M  V30 1 1 1 5
M  V30 2 1 1 6
M  V30 3 1 2 5
M  V30 4 1 2 7
M  V30 5 2 3 6
M  V30 6 2 4 7
M  V30 7 1 5 10
M  V30 8 1 5 11
M  V30 9 1 6 8
M  V30 10 1 7 9
M  V30 11 1 8 12
M  V30 12 1 8 13
M  V30 13 1 8 14
M  V30 14 1 9 15
M  V30 15 1 9 16
M  V30 16 1 9 17
M  V30 END BOND
M  V30 END CTAB
M  END
